/*--------------------------------*- C++ -*----------------------------------*\
  =========                 |
  \\      /  F ield         | OpenFOAM: The Open Source CFD Toolbox
   \\    /   O peration     | Website:  https://openfoam.org
    \\  /    A nd           | Version:  6
     \\/     M anipulation  |
\*---------------------------------------------------------------------------*/
FoamFile
{
    version     2.0;
    format      ascii;
    class       dictionary;
    location    "constant";
    object      initialConditions;
}
// * * * * * * * * * * * * * * * * * * * * * * * * * * * * * * * * * * * * * //

constantProperty pressure;

fractionBasis   mass;

fractions
{
N2      0.763364;
O2      0.23043;
H2O     0.0062052;
H2      3.47987e-09;
ALK3    2.5595E-08;
ALK4    1.9373e-08;
ARO1    1.8843e-08;
ARO2    6.65451e-09;
CRES    2.0228e-09;
ETHENE  3.98003e-09;
ISOPRENE        3.24653e-10;
OLE1    4.72743e-09;
OLE2    3.3533e-09;
TERP    5.3125e-10;
O3      1e-07;
NO      5.20833e-09;
NO2     2.39583e-08;
SO2     1.11111e-08;
CO      3.88889e-07;




/*N2	7.91e05;
O2	2.09e05;
H2O	1.00e04;
H2	5.00e-01;*/


// full MECH test IC
/*N2	0.763364;
O2	0.23043;
H2O	0.0062052;
H2	3.47987e-09;
ALK1	3.63281E-09;
ALK2	9.88281E-09;
ALK3	1.20707E-08;
ALK4	1.30269E-08;
ALK5	6.34592E-09;
ARO1	1.68203E-08;
ARO2	6.65451E-09;
BENZENE	4.04557E-09;
ETHENE	3.98003E-09;
ISOPRENE	3.24653E-10;
NROG	1.47394E-08;
OLE1	4.72743E-09;
OLE2	3.3533E-09;
TERP	5.3125E-10;
O3	0.0000001;
NO	5.20833E-09;
NO2	2.39583E-08;
SO2	1.11111E-08;
CO	3.88889E-07;
*/


//  no VOC test IC 
/*
O3	3.84e-04;
NO	3.00e-02;
NO2	1.39e-03;
OH	2.86e-09;
NO3	2.94e-11;
N2O5	1.25e-11;
HNO3	4.43e-07;
HONO	2.19e-05;
HO2	7.30e-11;
CO	2.82e-07;
HNO4	1.51e-11;
HO2H	1.28e-16;
SO2	3.80e-03;
O3P	9.17e-11;
O1D	1.35e-18;
*/

}

p               1.01325e+05;

T               300;


// ************************************************************************* //
