/*--------------------------------*- C++ -*----------------------------------*\
  =========                 |
  \\      /  F ield         | OpenFOAM: The Open Source CFD Toolbox
   \\    /   O peration     | Website:  https://openfoam.org
    \\  /    A nd           | Version:  6
     \\/     M anipulation  |
\*---------------------------------------------------------------------------*/
FoamFile
{
    version     2.0;
    format      ascii;
    class       volScalarField;
    location    "0";
    object      k;
}
// * * * * * * * * * * * * * * * * * * * * * * * * * * * * * * * * * * * * * //

dimensions      [0 2 -2 0 0 0 0];

internalField   uniform 0.05577;

boundaryField
{ 
    source
    {
        type            fixedValue;
        value           uniform 1e-10;
    }
    outlet
    {
        type            inletOutlet;
        inletValue      uniform 0.05577;
        value           $internalField;
    }
    inlet
    {
        type            groovyBC;
        valueExpression "(pos().z>=0 && pos().z<=0.04) ? (k_in1) : ((pos().z>0.04)  ? (k_in2) : 0)";
        variables       "k_in1=(6.4062-4.2)/20*pos().z*500+4.2;k_in2=pow(pos().z*500/40,3)*0.01223-pow(pos().z*500/40,2)*0.25145+pos().z*500/40*1.22766+5.85366;";
        value           $internalField;//uniform 0.0;
    }
    left
    {
        type            symmetryPlane;
    }
    top
    {
        type            symmetryPlane;
    }
    ground
    {
        type            kqRWallFunction;
        value           uniform 0.0;
    }
    right
    {
        type            symmetryPlane;
    }
 
}


// ************************************************************************* //
