/*--------------------------------*- C++ -*----------------------------------*\
  =========                 |
  \\      /  F ield         | OpenFOAM: The Open Source CFD Toolbox
   \\    /   O peration     | Website:  https://openfoam.org
    \\  /    A nd           | Version:  6
     \\/     M anipulation  |
\*---------------------------------------------------------------------------*/
FoamFile
{
    version     2.0;
    format      ascii;
    class       volScalarField;
    location    "0";
    object       N2;
} 
// * * * * * * * * * * * * * * * * * * * * * * * * * * * * * * * * * * * * * // 
 
dimensions      [0 0 0 0 0 0 0]; 
 
 
internalField   uniform  0.763364;
 
boundaryField 
{ 
    source
    {
        type            fixedValue;
        value           uniform 0;
    }
    outlet
    {
        type            inletOutlet; 
        inletValue      $internalField;
        value           $internalField;
    }
    inlet
    {
        type            fixedValue; 
        value           $internalField;
    }
    left
    {
        type            symmetryPlane;
    }
    top
    {
        type            symmetryPlane;
    }
    ground
    {
        type            zeroGradient;
    }
    right
    {
        type            symmetryPlane;
    }


}


// ************************************************************************* //
