/*--------------------------------*- C++ -*----------------------------------*\
  =========                 |
  \\      /  F ield         | OpenFOAM: The Open Source CFD Toolbox
   \\    /   O peration     | Website:  https://openfoam.org
    \\  /    A nd           | Version:  6
     \\/     M anipulation  |
\*---------------------------------------------------------------------------*/
FoamFile
{
    version     2.0;
    format      ascii;
    class       volVectorField;
    location    "0";
    object      U;
}
// * * * * * * * * * * * * * * * * * * * * * * * * * * * * * * * * * * * * * //

dimensions      [0 1 -1 0 0 0 0];

internalField   uniform (0.1 0 0);

boundaryField
{
    source
    {
        type            fixedValue;
        value           uniform (0 0 0.01);
    }
    outlet
    {
        type            inletOutlet;
        inletValue      uniform (0 0 0);
        value           $internalField;
    }
    inlet
    {
        type            groovyBC;
        valueExpression "vector(((pos().z>=0 && pos().z<=0.04) ? (u_in1) : ((pos().z>0.04)  ? (u_in2) : 0)),0,0)";
        variables       "u_in1=(9.0071-6.5)/20*pos().z*500+6.5;u_in2=pow(pos().z*500/40,0.25043)*4.94892+4.84671;";
        value           $internalField;
    }
    left
    {
        type            symmetryPlane;
    }
    top
    {
        type            symmetryPlane;
    }
    ground
    {
        type            noSlip;
    }
    right
    {
        type            symmetryPlane;
    }

}


// ************************************************************************* //
